Version 4
SHEET 1 3208 1716
WIRE -752 -416 -784 -416
WIRE -736 -416 -752 -416
WIRE -784 -384 -784 -416
WIRE -672 -336 -704 -336
WIRE -656 -336 -672 -336
WIRE -864 -320 -1040 -320
WIRE -640 -304 -704 -304
WIRE -1040 -240 -1040 -320
WIRE -896 -160 -928 -160
WIRE -880 -160 -896 -160
WIRE -928 -128 -928 -160
WIRE -1040 -80 -1040 -160
WIRE -1040 -80 -1104 -80
WIRE -1008 -80 -1040 -80
WIRE -688 -64 -848 -64
WIRE -576 -64 -688 -64
WIRE -480 -64 -576 -64
WIRE -2352 -48 -2352 -112
WIRE -1008 -48 -1104 -48
WIRE -688 -32 -688 -64
WIRE -576 -16 -576 -64
WIRE -2352 112 -2352 32
WIRE -688 128 -688 48
WIRE -576 128 -576 48
WIRE -1728 416 -1728 400
WIRE -1728 448 -1728 416
WIRE 1184 464 1184 448
WIRE 1184 496 1184 464
WIRE -1584 512 -1632 512
WIRE -2480 544 -2592 544
WIRE -2336 544 -2400 544
WIRE -1824 544 -1920 544
WIRE 1328 560 1280 560
WIRE -1584 576 -1632 576
WIRE -208 576 -272 576
WIRE 1088 592 992 592
WIRE -144 608 -144 576
WIRE 1472 624 1280 624
WIRE -1520 640 -1632 640
WIRE -208 656 -208 576
WIRE -144 656 -144 608
WIRE -80 656 -80 608
WIRE 448 656 448 608
WIRE 1328 688 1280 688
WIRE -848 704 -848 624
WIRE 16 752 -16 752
WIRE 32 752 16 752
WIRE -976 784 -1008 784
WIRE -960 784 -976 784
WIRE 448 784 448 736
WIRE 448 784 80 784
WIRE 1472 784 1472 624
WIRE 2272 784 1472 784
WIRE 2544 784 2272 784
WIRE 2992 784 2736 784
WIRE -1008 816 -1008 784
WIRE -1728 832 -1728 816
WIRE 2544 848 2416 848
WIRE -1728 864 -1728 832
WIRE -848 864 -848 784
WIRE -848 864 -928 864
WIRE -704 864 -848 864
WIRE 352 864 288 864
WIRE 2272 864 2272 784
WIRE -1088 880 -1152 880
WIRE 1184 880 1184 864
WIRE -112 896 -112 848
WIRE 352 896 -112 896
WIRE -848 912 -848 864
WIRE 1184 912 1184 880
WIRE -1584 928 -1632 928
WIRE -704 928 -704 864
WIRE -112 928 -112 896
WIRE 2992 928 2992 784
WIRE -928 944 -928 896
WIRE -2480 960 -2592 960
WIRE -2336 960 -2400 960
WIRE -1824 960 -1920 960
WIRE 1472 976 1472 784
WIRE 1472 976 1280 976
WIRE -1584 992 -1632 992
WIRE 2416 992 2416 848
WIRE 80 1008 80 784
WIRE 448 1008 80 1008
WIRE 1088 1008 992 1008
WIRE -2592 1024 -2592 960
WIRE 2272 1024 2272 944
WIRE 1328 1040 1280 1040
WIRE -1584 1056 -1632 1056
WIRE -848 1072 -848 992
WIRE -704 1072 -704 992
WIRE -112 1088 -112 1008
WIRE 2992 1088 2992 1008
WIRE 1328 1104 1280 1104
WIRE 2416 1152 2416 1072
FLAG -2352 112 0
FLAG -2352 -112 5V
FLAG -640 -304 EN
IOPIN -640 -304 In
FLAG -1104 -48 EN
IOPIN -1104 -48 In
FLAG -784 -256 0
FLAG -928 0 0
FLAG -896 -160 5V
FLAG -752 -416 5V
FLAG -672 -336 5V
FLAG -480 -64 SENSED_DIR
IOPIN -480 -64 Out
FLAG -1104 -80 SBU1_T
IOPIN -1104 -80 In
FLAG -1008 944 0
FLAG -976 784 5V
FLAG -848 624 5V
FLAG -928 944 0
FLAG -1152 880 EN
IOPIN -1152 880 Out
FLAG -848 1072 0
FLAG -704 1072 0
FLAG -272 576 EN
IOPIN -272 576 In
FLAG -320 752 0
FLAG 16 752 5V
FLAG -112 1088 0
FLAG -144 608 5V
FLAG -80 608 0
FLAG 448 608 5V
FLAG 288 864 SENSED_DIR
IOPIN 288 864 In
FLAG 544 864 DIR
IOPIN 544 864 Out
FLAG 1328 688 DIR
IOPIN 1328 688 In
FLAG 1184 800 0
FLAG 1184 464 5V
FLAG 1328 560 0
FLAG 1328 1104 DIR
IOPIN 1328 1104 In
FLAG 1184 1216 0
FLAG 1184 880 5V
FLAG 1328 1040 0
FLAG 992 592 SBU1_A
IOPIN 992 592 Out
FLAG 992 1008 SBU2_A
IOPIN 992 1008 Out
FLAG 2992 1088 0
FLAG 2640 720 5V
FLAG 2640 960 0
FLAG 2416 1152 0
FLAG 2272 1024 0
FLAG -688 128 0
FLAG -2336 544 SBU1
IOPIN -2336 544 BiDir
FLAG -2336 960 SBU2
IOPIN -2336 960 BiDir
FLAG -2592 1024 0
FLAG -1728 752 0
FLAG -1728 416 5V
FLAG -1728 1168 0
FLAG -1728 832 5V
FLAG -1584 576 SBU1_A
IOPIN -1584 576 In
FLAG -1584 992 SBU2_A
IOPIN -1584 992 In
FLAG -1520 640 EN
IOPIN -1520 640 In
FLAG -1584 1056 EN
IOPIN -1584 1056 In
FLAG -1920 544 SBU1
IOPIN -1920 544 BiDir
FLAG -1920 960 SBU2
IOPIN -1920 960 BiDir
FLAG -1584 512 SBU1_T
IOPIN -1584 512 Out
FLAG -1584 928 SBU2_T
IOPIN -1584 928 Out
FLAG -576 128 0
SYMBOL voltage -2352 -64 R0
WINDOW 123 0 0 Left 0
WINDOW 39 0 0 Left 0
SYMATTR InstName V2
SYMATTR Value PULSE(0 5 1m 10u 0 100m 110m)
SYMBOL ZZZ\\LOGIC\\74LVC1G\\74LVC1G125 -928 -128 R0
SYMATTR InstName U1
SYMBOL ZZZ\\LOGIC\\74LVC1G\\74LVC1G125 -784 -384 M0
SYMATTR InstName U2
SYMBOL res -1056 -256 R0
SYMATTR InstName R1
SYMATTR Value 100k
SYMBOL ZZZ\\LOGIC\\74LVC1G\\74LVC1G125 -1008 816 M0
SYMATTR InstName U4
SYMBOL res -864 688 R0
SYMATTR InstName R2
SYMATTR Value 100k
SYMBOL res -864 1008 M180
WINDOW 0 36 76 Left 2
WINDOW 3 36 40 Left 2
SYMATTR InstName R3
SYMATTR Value 1Meg
SYMBOL cap -720 928 R0
SYMATTR InstName C1
SYMATTR Value 100n
SYMBOL res -128 912 R0
SYMATTR InstName R4
SYMATTR Value 100k
SYMBOL Switches\\ADG849 -160 752 R90
SYMATTR InstName U5
SYMBOL ZZZ\\LOGIC\\74HC\\74hc74 448 784 R0
SYMATTR InstName U3
SYMBOL res 432 640 R0
SYMATTR InstName R5
SYMATTR Value 100k
SYMBOL Switches\\ADG849 1184 640 M0
SYMATTR InstName U6
SYMBOL Switches\\ADG849 1184 1056 M0
SYMATTR InstName U7
SYMBOL voltage 2992 912 R0
WINDOW 123 0 0 Left 0
WINDOW 39 0 0 Left 0
SYMATTR InstName V1
SYMATTR Value SINE(1.25 1 1k)
SYMBOL Switches\\ADG821 2640 832 R0
SYMATTR InstName U8
SYMBOL voltage 2416 976 R0
WINDOW 123 0 0 Left 0
WINDOW 39 0 0 Left 0
SYMATTR InstName V3
SYMATTR Value PULSE(0 5 20m 10u 0 100m 110m)
SYMBOL res 2256 848 R0
SYMATTR InstName R6
SYMATTR Value 100k
SYMBOL res -704 -48 R0
SYMATTR InstName R7
SYMATTR Value 100k
SYMBOL Switches\\ADG849 -1728 592 M0
SYMATTR InstName U9
SYMBOL Switches\\ADG849 -1728 1008 M0
SYMATTR InstName U10
SYMBOL cap -592 -16 R0
SYMATTR InstName C2
SYMATTR Value 100n
SYMBOL res -2384 528 R90
WINDOW 0 0 56 VBottom 2
WINDOW 3 32 56 VTop 2
SYMATTR InstName R8
SYMATTR Value 1
SYMBOL res -2384 944 R90
WINDOW 0 0 56 VBottom 2
WINDOW 3 32 56 VTop 2
SYMATTR InstName R9
SYMATTR Value 1
TEXT -2544 192 Left 2 !.tran 0 40m 0 0.5u
TEXT -2544 224 Left 2 !.param vcc=5
